-------------------------------------------------------
          Amber 14 SANDER                              2014
          -------------------------------------------------------

  [-O]verwriting output

File Assignments:

 Here is the input file:

Pressure
 &cntrl
  imin=0,
  ntx=5,
  irest=1,
  nstlim=1000000,
  dt=0.002,
  ntf=2,
  ntc=2,
  temp0=300.0,
  ntpr=500,
  ntwx=500,
  cut=12.5,
  ntb=2,
  ntp=1,
  ntt=3,
  gamma_ln=2.0,
  ig=-1,
 /

--------------------------------------------------------------------------------
   1.  RESOURCE   USE:
--------------------------------------------------------------------------------

 getting new box info from bottom of inpcrd

 NATOM  =   44611 NTYPES =       7 NBONH =   23765 MBONA  =   20862
 NTHETH =   47530 MTHETA =   23891 NPHIH =   80218 MPHIA  =   27003
 NHPARM =       0 NPARM  =       0 NNB   =  199412 NRES   =    2968
 NBONA  =   20862 NTHETA =   23891 NPHIA =   27003 NUMBND =      13
 NUMANG =      18 NPTRA  =       8 NATYP =      12 NPHB   =       0
 IFBOX  =       1 NMXRS  =     106 IFCAP =       0 NEXTRA =       0
 NCOPY  =       0

     BOX TYPE: RECTILINEAR
Note: ig = -1. Setting random seed to   521824 based on wallclock time in microseconds
      and disabling the synchronization of random numbers between tasks
      to improve performance.

--------------------------------------------------------------------------------
   2.  CONTROL  DATA  FOR  THE  RUN
--------------------------------------------------------------------------------

PDP

General flags:
     imin    =       0, nmropt  =       0

Nature and format of input:
     ntx     =       5, irest   =       1, ntrx    =       1

Nature and format of output:
     ntxo    =       1, ntpr    =     500, ntrx    =       1, ntwr    =     500
     iwrap   =       0, ntwx    =     500, ntwv    =       0, ntwe    =       0
     ioutfm  =       0, ntwprt  =       0, idecomp =       0, rbornstat=      0

Potential function:
     ntf     =       2, ntb     =       2, igb     =       0, nsnb    =      25
     ipol    =       0, gbsa    =       0, iesp    =       0
     dielc   =   1.00000, cut     =  12.50000, intdiel =   1.00000

Frozen or restrained atoms:
     ibelly  =       0, ntr     =       0

Molecular dynamics:
     nstlim  =   1000000, nscm    =      1000, nrespa  =         1
     t       =   0.00000, dt      =   0.00200, vlimit  =  20.00000

Langevin dynamics temperature regulation:
     ig      =  521824
     temp0   = 300.00000, tempi   =   0.00000, gamma_ln=   2.00000

Pressure regulation:
     ntp     =       1
     pres0   =   1.00000, comp    =  44.60000, taup    =   1.00000

SHAKE:
     ntc     =       2, jfastw  =       0
     tol     =   0.00001

Ewald parameters:
     verbose =       0, ew_type =       0, nbflag  =       1, use_pme =       1
     vdwmeth =       1, eedmeth =       1, netfrc  =       1
     Box X =  116.426   Box Y =  101.461   Box Z =   96.502
     Alpha =   90.000   Beta  =   90.000   Gamma =   90.000
     NFFT1 =  120       NFFT2 =  108       NFFT3 =   96
     Cutoff=   12.500   Tol   =0.100E-04
     Ewald Coefficient =  0.21700
     Interpolation order =    4

--------------------------------------------------------------------------------
   3.  ATOMIC COORDINATES AND VELOCITIES
--------------------------------------------------------------------------------

PDP
 begin time read from input coords =    40.000 ps

 Number of triangulated 3-point waters found:        0

     Sum of charges from parm topology file =   0.00000977
     Forcing neutrality...

--------------------------------------------------------------------------------
   4.  RESULTS
 NSTEP =      500   TIME(PS) =      41.000  TEMP(K) =   303.02  PRESS =  -104.4
 Etot   =     46054.6056  EKtot   =     33139.0284  EPtot      =     12915.5772
 BOND   =      6720.0699  ANGLE   =     12778.6877  DIHED      =      8306.1225
 1-4 NB =     11762.3921  1-4 EEL =     -8536.7117  VDWAALS    =    -17622.3834
 EELEC  =      -492.5998  EHBOND  =         0.0000  RESTRAINT  =         0.0000
 EKCMT  =      2748.7259  VIRIAL  =      5311.2398  VOLUME     =   1136512.3998
                                                    Density    =         0.4009
 Ewald error estimate:   0.1503E-02
 ------------------------------------------------------------------------------

      A V E R A G E S   O V E R 1000000 S T E P S

 NSTEP =  1000000   TIME(PS) =    2040.000  TEMP(K) =   300.03  PRESS =    -7.3
 Etot   =     40278.1489  EKtot   =     32811.8175  EPtot      =      7466.3314
 BOND   =      6800.7797  ANGLE   =     12845.4672  DIHED      =      8185.7512
 1-4 NB =     11770.2222  1-4 EEL =     -8533.6132  VDWAALS    =    -22771.8646
 EELEC  =      -830.4111  EHBOND  =         0.0000  RESTRAINT  =         0.0000
 EKCMT  =      2656.0593  VIRIAL  =      2787.8528  VOLUME     =    565099.4172
                                                    Density    =         0.8180
 Ewald error estimate:   0.1958E-02
 ------------------------------------------------------------------------------

      R M S  F L U C T U A T I O N S

 NSTEP =  1000000   TIME(PS) =    2040.000  TEMP(K) =     1.25  PRESS =    58.2
 Etot   =      1003.9410  EKtot   =       137.0922  EPtot      =       993.5501
 BOND   =        66.6126  ANGLE   =        87.5137  DIHED      =        70.0134
 1-4 NB =        26.6673  1-4 EEL =        11.5337  VDWAALS    =       922.6785
 EELEC  =        68.1103  EHBOND  =         0.0000  RESTRAINT  =         0.0000
 EKCMT  =        39.2738  VIRIAL  =       792.3645  VOLUME     =     88247.8263
                                                    Density    =         0.0759
 Ewald error estimate:   0.9525E-03
 ------------------------------------------------------------------------------
